%chk=test.chk
# opt=modredundant mp2/aug-cc-pvtz scf=(tight,direct)

Molecule Density and ESP Calculation

0 1
 C                 -1.36500288   -0.33007744   -0.00885475
 C                  0.04439447    0.11851560   -0.00097095
 N                  1.03813072   -0.79719714   -0.02544440
 H                  0.88275574   -1.73662665    0.23333277
 H                  1.98821047   -0.50397640   -0.11591068
 O                  0.36211763    1.29697133    0.02536958
 H                 -1.79370991   -0.31556833    1.02160124
 H                 -1.85147541    0.39375572   -0.71672881
 H                 -1.46598660   -1.36360400   -0.38818619

B 2 1
D 6 2 1 9 S 1 1.0
A 6 2 3

